Version 4.1
SHEET 1 2240 956
WIRE -160 -48 -656 -48
WIRE 336 -16 240 -16
WIRE 448 -16 416 -16
WIRE 448 16 448 -16
WIRE 864 16 736 16
WIRE 976 16 928 16
WIRE 1216 32 1184 32
WIRE 1344 32 1280 32
WIRE 1632 32 1584 32
WIRE 1760 32 1712 32
WIRE -160 96 -160 -48
WIRE -48 96 -160 96
WIRE 80 112 16 112
WIRE 144 112 80 112
WIRE 240 112 240 -16
WIRE 240 112 224 112
WIRE 272 112 240 112
WIRE -48 128 -112 128
WIRE 448 128 448 96
WIRE 448 128 336 128
WIRE 576 128 448 128
WIRE 736 128 736 16
WIRE 736 128 656 128
WIRE 768 128 736 128
WIRE 272 144 256 144
WIRE 976 144 976 16
WIRE 976 144 832 144
WIRE 1088 144 976 144
WIRE 1184 144 1184 32
WIRE 1184 144 1168 144
WIRE 1216 144 1184 144
WIRE 768 160 720 160
WIRE 1344 160 1344 32
WIRE 1344 160 1280 160
WIRE 1424 160 1344 160
WIRE 1584 160 1584 32
WIRE 1584 160 1504 160
WIRE 1632 160 1584 160
WIRE -656 176 -656 -48
WIRE -544 176 -656 176
WIRE 1216 176 1200 176
WIRE 1760 176 1760 32
WIRE 1760 176 1696 176
WIRE 1936 176 1760 176
WIRE 1632 192 1568 192
WIRE 2080 192 2000 192
WIRE 2128 192 2080 192
WIRE -544 208 -608 208
WIRE 256 208 256 144
WIRE 720 208 720 160
WIRE 1936 208 1872 208
WIRE -112 224 -112 128
WIRE 80 224 80 112
WIRE 80 224 -112 224
WIRE 1200 240 1200 176
WIRE 1568 256 1568 192
WIRE -608 272 -608 208
WIRE 240 288 240 112
WIRE 1872 288 1872 208
WIRE 2080 288 2080 192
WIRE 2080 288 1872 288
WIRE 1568 368 1568 336
WIRE -864 464 -944 464
WIRE 240 464 240 368
WIRE 1344 464 1344 160
WIRE 1344 464 240 464
WIRE -864 496 -864 464
FLAG -608 272 0
FLAG -944 464 0
FLAG -864 384 V+
FLAG -16 144 V+
FLAG -864 576 v-
FLAG -16 80 v-
FLAG 256 208 0
FLAG 720 208 0
FLAG 1200 240 0
FLAG 304 96 v+
FLAG 800 112 v+
FLAG 1248 128 v+
FLAG 304 160 v-
FLAG 800 176 v-
FLAG 1248 192 v-
FLAG 1568 368 0
FLAG 1664 144 V+
FLAG 1968 224 V+
FLAG 1968 160 V-
FLAG 1664 208 V-
FLAG -656 176 VIN
IOPIN -656 176 In
FLAG 2128 192 Vout
IOPIN 2128 192 Out
SYMBOL COMPOSITE_SRC -480 192 R0
SYMATTR InstName U1
SYMBOL OpAmps\\LT1057 -16 176 M180
SYMATTR InstName U2
SYMBOL voltage -864 368 R0
WINDOW 123 0 0 Left 0
WINDOW 39 0 0 Left 0
SYMATTR InstName V1
SYMATTR Value 20
SYMBOL voltage -864 480 R0
WINDOW 123 0 0 Left 0
WINDOW 39 0 0 Left 0
SYMATTR InstName V2
SYMATTR Value 20
SYMBOL OpAmps\\LT1057 304 64 R0
SYMATTR InstName U3
SYMBOL OpAmps\\LT1057 800 80 R0
SYMATTR InstName U4
SYMBOL OpAmps\\LT1057 1248 96 R0
SYMATTR InstName U5
SYMBOL res 240 96 R90
WINDOW 0 0 56 VBottom 2
WINDOW 3 32 56 VTop 2
SYMATTR InstName R1
SYMATTR Value 2.7k
SYMBOL res 224 272 R0
SYMATTR InstName R2
SYMATTR Value 2.7k
SYMBOL res 464 112 R180
WINDOW 0 36 76 Left 2
WINDOW 3 36 40 Left 2
SYMATTR InstName R3
SYMATTR Value 1k
SYMBOL res 320 0 R270
WINDOW 0 32 56 VTop 2
WINDOW 3 0 56 VBottom 2
SYMATTR InstName R4
SYMATTR Value 25k
SYMBOL res 672 112 R90
WINDOW 0 0 56 VBottom 2
WINDOW 3 32 56 VTop 2
SYMATTR InstName R5
SYMATTR Value {Rf_tune}
SYMBOL cap 928 0 R90
WINDOW 0 0 32 VBottom 2
WINDOW 3 32 32 VTop 2
SYMATTR InstName C1
SYMATTR Value 10n
SYMBOL res 1184 128 R90
WINDOW 0 0 56 VBottom 2
WINDOW 3 32 56 VTop 2
SYMATTR InstName R6
SYMATTR Value {Rf_tune}
SYMBOL cap 1280 16 R90
WINDOW 0 0 32 VBottom 2
WINDOW 3 32 32 VTop 2
SYMATTR InstName C2
SYMATTR Value 10n
SYMBOL res 1520 144 R90
WINDOW 0 0 56 VBottom 2
WINDOW 3 32 56 VTop 2
SYMATTR InstName R7
SYMATTR Value 10k
SYMBOL OpAmps\\LT1057 1664 112 R0
WINDOW 0 35 62 Left 2
WINDOW 3 62 98 Left 2
SYMATTR InstName U6
SYMBOL res 1728 16 R90
WINDOW 0 0 56 VBottom 2
WINDOW 3 32 56 VTop 2
SYMATTR InstName R8
SYMATTR Value {Rf}
SYMBOL res 1552 240 R0
SYMATTR InstName R9
SYMATTR Value 10k
SYMBOL OpAmps\\LT1057 1968 256 M180
SYMATTR InstName U7
TEXT -576 56 Left 2 !.include composite_blackbox.lib
TEXT -576 88 Left 2 ;.tran 0 20m
TEXT 480 528 Left 2 !.tran 0 20m
TEXT 872 536 Left 2 !.param Rf=10k
TEXT 648 640 Left 2 !.step param Rf_tune 2k 4k 500
